Version 4
SHEET 1 3124 4724
WIRE -21936 -4800 -22096 -4800
WIRE -26560 336 -26560 288
WIRE -26560 432 -26560 416
WIRE -26464 432 -26560 432
WIRE -26464 448 -26464 432
WIRE -26560 464 -26560 432
WIRE -26560 592 -26560 544
WIRE -28656 736 -28928 736
WIRE -28704 800 -28848 800
WIRE -28896 864 -28928 864
WIRE -27408 864 -27520 864
WIRE -27520 896 -27520 864
WIRE -28896 912 -28896 864
WIRE -28752 912 -28896 912
WIRE -27408 928 -27408 864
WIRE -27360 928 -27408 928
WIRE -27200 928 -27264 928
WIRE -26992 928 -27136 928
WIRE -28784 944 -28912 944
WIRE -28656 944 -28656 736
WIRE -28544 944 -28656 944
WIRE -28400 944 -28448 944
WIRE -27856 944 -28336 944
WIRE -26992 976 -26992 928
WIRE -26992 976 -27280 976
WIRE -27360 992 -27360 976
WIRE -27360 992 -28608 992
WIRE -26848 992 -26896 992
WIRE -26704 992 -26768 992
WIRE -28704 1008 -28704 800
WIRE -28608 1008 -28608 992
WIRE -28608 1008 -28704 1008
WIRE -28416 1008 -28608 1008
WIRE -27856 1008 -27856 944
WIRE -27856 1008 -28336 1008
WIRE -27408 1024 -27536 1024
WIRE -27408 1040 -27408 1024
WIRE -27360 1040 -27408 1040
WIRE -27200 1040 -27264 1040
WIRE -26992 1040 -26992 976
WIRE -26992 1040 -27136 1040
WIRE -28832 1056 -28960 1056
WIRE -28752 1056 -28752 912
WIRE -28544 1056 -28752 1056
WIRE -28400 1056 -28448 1056
WIRE -27856 1056 -27856 1008
WIRE -27856 1056 -28336 1056
WIRE -27360 1088 -28608 1088
WIRE -26992 1088 -26992 1040
WIRE -26992 1088 -27280 1088
WIRE -28864 1104 -28880 1104
WIRE -28784 1104 -28784 944
WIRE -28608 1104 -28608 1088
WIRE -28608 1104 -28784 1104
WIRE -28416 1104 -28608 1104
WIRE -27856 1104 -27856 1056
WIRE -27856 1104 -28336 1104
WIRE -27408 1120 -27504 1120
WIRE -27744 1136 -27776 1136
WIRE -27552 1136 -27664 1136
WIRE -28832 1152 -28832 1056
WIRE -28544 1152 -28832 1152
WIRE -28400 1152 -28448 1152
WIRE -27856 1152 -27856 1104
WIRE -27856 1152 -28336 1152
WIRE -27408 1152 -27408 1120
WIRE -27360 1152 -27408 1152
WIRE -27200 1152 -27264 1152
WIRE -26992 1152 -26992 1088
WIRE -26992 1152 -27136 1152
WIRE -26896 1152 -26896 992
WIRE -26896 1152 -26992 1152
WIRE -26832 1152 -26896 1152
WIRE -27392 1168 -28416 1168
WIRE -26704 1168 -26704 992
WIRE -26704 1168 -26768 1168
WIRE -28912 1184 -28976 1184
WIRE -28416 1200 -28416 1168
WIRE -28416 1200 -28448 1200
WIRE -27392 1200 -27392 1168
WIRE -27360 1200 -27392 1200
WIRE -26992 1200 -26992 1152
WIRE -26992 1200 -27280 1200
WIRE -28864 1216 -28864 1104
WIRE -28448 1216 -28448 1200
WIRE -28448 1216 -28864 1216
WIRE -28416 1216 -28448 1216
WIRE -27856 1216 -27856 1152
WIRE -27856 1216 -28336 1216
WIRE -27776 1216 -27776 1136
WIRE -27776 1216 -27856 1216
WIRE -27648 1216 -27776 1216
WIRE -28928 1232 -28944 1232
WIRE -27552 1232 -27552 1136
WIRE -27552 1232 -27584 1232
WIRE -28912 1264 -28912 1184
WIRE -28544 1264 -28912 1264
WIRE -28400 1264 -28448 1264
WIRE -27856 1264 -27856 1216
WIRE -27856 1264 -28336 1264
WIRE -27360 1264 -27520 1264
WIRE -27200 1264 -27264 1264
WIRE -26992 1264 -26992 1200
WIRE -26992 1264 -27136 1264
WIRE -28928 1296 -28928 1232
WIRE -28560 1296 -28928 1296
WIRE -27360 1312 -28512 1312
WIRE -26992 1312 -26992 1264
WIRE -26992 1312 -27280 1312
WIRE -28608 1328 -29008 1328
WIRE -28560 1328 -28560 1296
WIRE -28512 1328 -28512 1312
WIRE -28512 1328 -28560 1328
WIRE -28432 1328 -28512 1328
WIRE -27856 1328 -27856 1264
WIRE -27856 1328 -28352 1328
WIRE -28640 1376 -28928 1376
WIRE -28608 1392 -28608 1328
WIRE -28544 1392 -28608 1392
WIRE -28416 1392 -28448 1392
WIRE -27360 1392 -27536 1392
WIRE -27200 1392 -27264 1392
WIRE -26992 1392 -26992 1312
WIRE -26992 1392 -27136 1392
WIRE -28416 1408 -28416 1392
WIRE -28400 1408 -28416 1408
WIRE -27856 1408 -27856 1328
WIRE -27856 1408 -28336 1408
WIRE -27360 1440 -28512 1440
WIRE -26992 1440 -26992 1392
WIRE -26992 1440 -27280 1440
WIRE -28640 1456 -28640 1376
WIRE -28512 1456 -28512 1440
WIRE -28512 1456 -28640 1456
WIRE -28432 1456 -28512 1456
WIRE -27856 1456 -27856 1408
WIRE -27856 1456 -28352 1456
WIRE -28560 1504 -29008 1504
WIRE -28416 1504 -28464 1504
WIRE -27856 1504 -27856 1456
WIRE -27856 1504 -28352 1504
WIRE -27360 1504 -27600 1504
WIRE -27200 1504 -27264 1504
WIRE -26992 1504 -26992 1440
WIRE -26992 1504 -27136 1504
WIRE -27424 1536 -28608 1536
WIRE -27424 1552 -27424 1536
WIRE -27360 1552 -27424 1552
WIRE -26992 1552 -26992 1504
WIRE -26992 1552 -27280 1552
WIRE -28608 1568 -28608 1536
WIRE -28608 1568 -28928 1568
WIRE -28416 1568 -28608 1568
WIRE -27856 1568 -27856 1504
WIRE -27856 1568 -28336 1568
WIRE -27408 1600 -27568 1600
WIRE -28544 1616 -29008 1616
WIRE -28400 1616 -28448 1616
WIRE -27856 1616 -27856 1568
WIRE -27856 1616 -28336 1616
WIRE -27408 1616 -27408 1600
WIRE -27360 1616 -27408 1616
WIRE -27200 1616 -27264 1616
WIRE -26992 1616 -26992 1552
WIRE -26992 1616 -27136 1616
WIRE -27360 1664 -28592 1664
WIRE -26992 1664 -26992 1616
WIRE -26992 1664 -27280 1664
WIRE -28592 1680 -28592 1664
WIRE -28592 1680 -28928 1680
WIRE -28416 1680 -28592 1680
WIRE -27856 1680 -27856 1616
WIRE -27856 1680 -28336 1680
WIRE -27424 1696 -27600 1696
WIRE -28528 1728 -28576 1728
WIRE -28400 1728 -28432 1728
WIRE -27856 1728 -27856 1680
WIRE -27856 1728 -28336 1728
WIRE -27424 1728 -27424 1696
WIRE -27360 1728 -27424 1728
WIRE -27200 1728 -27264 1728
WIRE -26992 1728 -26992 1664
WIRE -26992 1728 -27136 1728
WIRE -28576 1744 -28576 1728
WIRE -28576 1744 -29008 1744
WIRE -27472 1744 -27632 1744
WIRE -27632 1776 -27632 1744
WIRE -27632 1776 -28544 1776
WIRE -27472 1776 -27472 1744
WIRE -27424 1776 -27472 1776
WIRE -28544 1792 -28544 1776
WIRE -28544 1792 -28928 1792
WIRE -28400 1792 -28544 1792
WIRE -27856 1792 -27856 1728
WIRE -27856 1792 -28320 1792
WIRE -27424 1792 -27424 1776
WIRE -27360 1792 -27424 1792
WIRE -26992 1792 -26992 1728
WIRE -26992 1792 -27280 1792
WIRE -27392 1808 -27568 1808
WIRE -28512 1840 -28544 1840
WIRE -28400 1840 -28416 1840
WIRE -28544 1856 -28544 1840
WIRE -28544 1856 -29008 1856
WIRE -28400 1856 -28400 1840
WIRE -28368 1856 -28400 1856
WIRE -27856 1856 -27856 1792
WIRE -27856 1856 -28304 1856
WIRE -27472 1856 -27632 1856
WIRE -27392 1856 -27392 1808
WIRE -27360 1856 -27392 1856
WIRE -27200 1856 -27264 1856
WIRE -26992 1856 -26992 1792
WIRE -26992 1856 -27136 1856
WIRE -27632 1888 -27632 1856
WIRE -27632 1888 -28464 1888
WIRE -27472 1888 -27472 1856
WIRE -27440 1888 -27472 1888
WIRE -28464 1904 -28464 1888
WIRE -28464 1904 -28928 1904
WIRE -28352 1904 -28464 1904
WIRE -27856 1904 -27856 1856
WIRE -27856 1904 -28272 1904
WIRE -27440 1920 -27440 1888
WIRE -27360 1920 -27440 1920
WIRE -26992 1920 -26992 1856
WIRE -26992 1920 -27280 1920
WIRE -27536 1936 -27616 1936
WIRE -28496 1968 -29008 1968
WIRE -28336 1968 -28400 1968
WIRE -27856 1968 -27856 1904
WIRE -27856 1968 -28272 1968
WIRE -27536 1984 -27536 1936
WIRE -27360 1984 -27536 1984
WIRE -27200 1984 -27264 1984
WIRE -26992 1984 -26992 1920
WIRE -26992 1984 -27136 1984
WIRE -27552 2000 -28576 2000
WIRE -28576 2016 -28576 2000
WIRE -28576 2016 -28928 2016
WIRE -28336 2016 -28576 2016
WIRE -27856 2016 -27856 1968
WIRE -27856 2016 -28256 2016
WIRE -27552 2048 -27552 2000
WIRE -27360 2048 -27552 2048
WIRE -26992 2048 -26992 1984
WIRE -26992 2048 -27280 2048
WIRE -28480 2080 -29008 2080
WIRE -28352 2080 -28384 2080
WIRE -28352 2096 -28352 2080
WIRE -28320 2096 -28352 2096
WIRE -27856 2096 -27856 2016
WIRE -27856 2096 -28256 2096
WIRE -27360 2096 -27568 2096
WIRE -27200 2096 -27264 2096
WIRE -26992 2096 -26992 2048
WIRE -26992 2096 -27136 2096
WIRE -28528 2128 -28928 2128
WIRE -27600 2128 -28448 2128
WIRE -28528 2144 -28528 2128
WIRE -28448 2144 -28448 2128
WIRE -28448 2144 -28528 2144
WIRE -28320 2144 -28448 2144
WIRE -27856 2144 -27856 2096
WIRE -27856 2144 -28240 2144
WIRE -27600 2160 -27600 2128
WIRE -27360 2160 -27600 2160
WIRE -26992 2160 -26992 2096
WIRE -26992 2160 -27280 2160
WIRE -29008 2192 -29024 2192
WIRE -28464 2192 -29008 2192
WIRE -28336 2192 -28368 2192
WIRE -28336 2208 -28336 2192
WIRE -28304 2208 -28336 2208
WIRE -27856 2208 -27856 2144
WIRE -27856 2208 -28240 2208
WIRE -27360 2208 -27552 2208
WIRE -27200 2208 -27264 2208
WIRE -26992 2208 -26992 2160
WIRE -26992 2208 -27136 2208
WIRE -28512 2240 -28928 2240
WIRE -27504 2240 -28384 2240
WIRE -28512 2256 -28512 2240
WIRE -28384 2256 -28384 2240
WIRE -28384 2256 -28512 2256
WIRE -28304 2256 -28384 2256
WIRE -27856 2256 -27856 2208
WIRE -27856 2256 -28224 2256
WIRE -27504 2256 -27504 2240
WIRE -27360 2256 -27504 2256
WIRE -26992 2256 -26992 2208
WIRE -26992 2256 -27280 2256
WIRE -28448 2304 -29008 2304
WIRE -28320 2304 -28352 2304
WIRE -28320 2320 -28320 2304
WIRE -28288 2320 -28320 2320
WIRE -28272 2320 -28288 2320
WIRE -27856 2320 -27856 2256
WIRE -27856 2320 -28224 2320
WIRE -27360 2320 -27552 2320
WIRE -27200 2320 -27264 2320
WIRE -26992 2320 -26992 2256
WIRE -26992 2320 -27136 2320
WIRE -27600 2352 -28448 2352
WIRE -28592 2368 -28928 2368
WIRE -28592 2384 -28592 2368
WIRE -28448 2384 -28448 2352
WIRE -28448 2384 -28592 2384
WIRE -28304 2384 -28448 2384
WIRE -27856 2384 -27856 2320
WIRE -27856 2384 -28224 2384
WIRE -27600 2384 -27600 2352
WIRE -27360 2384 -27600 2384
WIRE -26992 2384 -26992 2320
WIRE -26992 2384 -27280 2384
WIRE -27456 2400 -27472 2400
WIRE -28448 2416 -29008 2416
WIRE -28320 2416 -28352 2416
WIRE -28320 2432 -28320 2416
WIRE -28288 2432 -28320 2432
WIRE -27856 2432 -27856 2384
WIRE -27856 2432 -28224 2432
WIRE -27472 2432 -27472 2400
WIRE -27472 2432 -27552 2432
WIRE -27456 2448 -27456 2400
WIRE -27360 2448 -27456 2448
WIRE -27200 2448 -27264 2448
WIRE -26992 2448 -26992 2384
WIRE -26992 2448 -27136 2448
WIRE -27504 2464 -28544 2464
WIRE -28544 2480 -28544 2464
WIRE -28544 2480 -28928 2480
WIRE -28304 2480 -28544 2480
WIRE -27856 2480 -27856 2432
WIRE -27856 2480 -28224 2480
WIRE -27504 2496 -27504 2464
WIRE -27360 2496 -27504 2496
WIRE -26992 2496 -26992 2448
WIRE -26992 2496 -27280 2496
WIRE -28432 2528 -29008 2528
WIRE -28432 2544 -28432 2528
WIRE -28288 2544 -28336 2544
WIRE -27856 2544 -27856 2480
WIRE -27856 2544 -28224 2544
WIRE -27360 2560 -27552 2560
WIRE -27200 2560 -27264 2560
WIRE -26992 2560 -26992 2496
WIRE -26992 2560 -27136 2560
WIRE -27456 2576 -28448 2576
WIRE -28448 2592 -28448 2576
WIRE -28448 2592 -28928 2592
WIRE -28288 2592 -28448 2592
WIRE -27856 2592 -27856 2544
WIRE -27856 2592 -28208 2592
WIRE -27456 2624 -27456 2576
WIRE -27360 2624 -27456 2624
WIRE -26992 2624 -26992 2560
WIRE -26992 2624 -27280 2624
WIRE -28432 2640 -29008 2640
WIRE -28432 2656 -28432 2640
WIRE -28272 2656 -28336 2656
WIRE -27856 2656 -27856 2592
WIRE -27856 2656 -28208 2656
WIRE -27360 2672 -27552 2672
WIRE -27200 2672 -27264 2672
WIRE -26992 2672 -26992 2624
WIRE -26992 2672 -27136 2672
WIRE -27648 2688 -28400 2688
WIRE -28400 2704 -28400 2688
WIRE -28400 2704 -28928 2704
WIRE -28272 2704 -28400 2704
WIRE -27856 2704 -27856 2656
WIRE -27856 2704 -28192 2704
WIRE -27648 2720 -27648 2688
WIRE -27360 2720 -27648 2720
WIRE -26992 2720 -26992 2672
WIRE -26992 2720 -27280 2720
WIRE -28432 2768 -29008 2768
WIRE -28432 2784 -28432 2768
WIRE -28256 2784 -28336 2784
WIRE -27856 2784 -27856 2704
WIRE -27856 2784 -28192 2784
WIRE -27360 2784 -27552 2784
WIRE -27200 2784 -27264 2784
WIRE -26992 2784 -26992 2720
WIRE -26992 2784 -27136 2784
WIRE -28496 2816 -28928 2816
WIRE -27520 2816 -28432 2816
WIRE -28496 2832 -28496 2816
WIRE -28432 2832 -28432 2816
WIRE -28432 2832 -28496 2832
WIRE -28272 2832 -28432 2832
WIRE -28256 2832 -28272 2832
WIRE -27856 2832 -27856 2784
WIRE -27856 2832 -28192 2832
WIRE -27520 2848 -27520 2816
WIRE -27360 2848 -27520 2848
WIRE -26992 2848 -26992 2784
WIRE -26992 2848 -27280 2848
WIRE -27680 2880 -28576 2880
WIRE -27680 2896 -27680 2880
WIRE -27552 2896 -27680 2896
WIRE -27360 2896 -27552 2896
WIRE -27200 2896 -27264 2896
WIRE -26992 2896 -26992 2848
WIRE -26992 2896 -27136 2896
WIRE -28576 2912 -28576 2880
WIRE -28576 2912 -29008 2912
WIRE -28432 2912 -28576 2912
WIRE -28256 2912 -28336 2912
WIRE -27856 2912 -27856 2832
WIRE -27856 2912 -28192 2912
WIRE -28464 2960 -28928 2960
WIRE -27360 2960 -28464 2960
WIRE -26992 2960 -26992 2896
WIRE -26992 2960 -27280 2960
WIRE -28464 2976 -28464 2960
WIRE -28272 2976 -28464 2976
WIRE -27856 2976 -27856 2912
WIRE -27856 2976 -28192 2976
WIRE -27360 3040 -27552 3040
WIRE -27216 3040 -27264 3040
WIRE -26992 3040 -26992 2960
WIRE -26992 3040 -27152 3040
WIRE -28416 3056 -29008 3056
WIRE -28256 3056 -28320 3056
WIRE -27856 3056 -27856 2976
WIRE -27856 3056 -28192 3056
WIRE -28400 3104 -28928 3104
WIRE -27360 3104 -28400 3104
WIRE -28400 3120 -28400 3104
WIRE -28256 3120 -28400 3120
WIRE -27856 3120 -27856 3056
WIRE -27856 3120 -28176 3120
WIRE -27360 3120 -27360 3104
WIRE -26992 3120 -26992 3040
WIRE -26992 3120 -27280 3120
WIRE -27392 3168 -27552 3168
WIRE -27392 3184 -27392 3168
WIRE -27360 3184 -27392 3184
WIRE -27216 3184 -27264 3184
WIRE -26992 3184 -26992 3120
WIRE -26992 3184 -27152 3184
WIRE -28400 3200 -29024 3200
WIRE -28256 3200 -28304 3200
WIRE -27856 3200 -27856 3120
WIRE -27856 3200 -28192 3200
WIRE -28448 3232 -28928 3232
WIRE -27456 3232 -28320 3232
WIRE -28448 3248 -28448 3232
WIRE -28320 3248 -28320 3232
WIRE -28320 3248 -28448 3248
WIRE -28256 3248 -28320 3248
WIRE -27856 3248 -27856 3200
WIRE -27856 3248 -28176 3248
WIRE -27456 3264 -27456 3232
WIRE -27360 3264 -27456 3264
WIRE -26992 3264 -26992 3184
WIRE -26992 3264 -27280 3264
WIRE -27520 3296 -27552 3296
WIRE -28384 3328 -29024 3328
WIRE -28256 3328 -28288 3328
WIRE -27856 3328 -27856 3248
WIRE -27856 3328 -28192 3328
WIRE -27520 3328 -27520 3296
WIRE -27360 3328 -27520 3328
WIRE -27216 3328 -27264 3328
WIRE -26992 3328 -26992 3264
WIRE -26992 3328 -27152 3328
WIRE -27504 3344 -27616 3344
WIRE -28416 3376 -28928 3376
WIRE -27616 3376 -27616 3344
WIRE -27616 3376 -28416 3376
WIRE -28416 3392 -28416 3376
WIRE -28256 3392 -28416 3392
WIRE -27856 3392 -27856 3328
WIRE -27856 3392 -28176 3392
WIRE -27504 3392 -27504 3344
WIRE -27360 3392 -27504 3392
WIRE -26992 3392 -26992 3328
WIRE -26992 3392 -27280 3392
WIRE -27536 3440 -27568 3440
WIRE -28256 3456 -28288 3456
WIRE -27856 3456 -27856 3392
WIRE -27856 3456 -28192 3456
WIRE -27536 3456 -27536 3440
WIRE -27360 3456 -27536 3456
WIRE -27216 3456 -27264 3456
WIRE -26992 3456 -26992 3392
WIRE -26992 3456 -27152 3456
WIRE -28384 3472 -28384 3456
WIRE -28384 3472 -29024 3472
WIRE -27680 3488 -28400 3488
WIRE -27488 3488 -27632 3488
WIRE -28400 3520 -28400 3488
WIRE -28400 3520 -28928 3520
WIRE -28256 3520 -28400 3520
WIRE -27856 3520 -27856 3456
WIRE -27856 3520 -28176 3520
WIRE -27680 3520 -27680 3488
WIRE -27632 3520 -27632 3488
WIRE -27632 3520 -27680 3520
WIRE -27488 3520 -27488 3488
WIRE -27360 3520 -27488 3520
WIRE -26992 3520 -26992 3456
WIRE -26992 3520 -27280 3520
WIRE -27584 3568 -27616 3568
WIRE -28384 3584 -28592 3584
WIRE -28256 3584 -28288 3584
WIRE -27856 3584 -27856 3520
WIRE -27856 3584 -28192 3584
WIRE -27584 3584 -27584 3568
WIRE -27376 3584 -27584 3584
WIRE -27232 3584 -27280 3584
WIRE -26992 3584 -26992 3520
WIRE -26992 3584 -27168 3584
WIRE -27568 3616 -28368 3616
WIRE -28592 3632 -28592 3584
WIRE -28592 3632 -29024 3632
WIRE -28368 3632 -28368 3616
WIRE -28368 3632 -28416 3632
WIRE -28272 3632 -28368 3632
WIRE -27856 3632 -27856 3584
WIRE -27856 3632 -28192 3632
WIRE -27568 3648 -27568 3616
WIRE -27360 3648 -27568 3648
WIRE -26992 3648 -26992 3584
WIRE -26992 3648 -27280 3648
WIRE -28416 3664 -28416 3632
WIRE -28416 3664 -28928 3664
WIRE -27440 3680 -27616 3680
WIRE -28384 3696 -28560 3696
WIRE -28256 3696 -28288 3696
WIRE -27856 3696 -27856 3632
WIRE -27856 3696 -28192 3696
WIRE -27440 3696 -27440 3680
WIRE -27360 3696 -27440 3696
WIRE -27216 3696 -27264 3696
WIRE -26992 3696 -26992 3648
WIRE -26992 3696 -27152 3696
WIRE -27472 3728 -28368 3728
WIRE -28368 3744 -28368 3728
WIRE -28368 3744 -28544 3744
WIRE -28256 3744 -28368 3744
WIRE -27856 3744 -27856 3696
WIRE -27856 3744 -28176 3744
WIRE -28560 3760 -28560 3696
WIRE -28560 3760 -29024 3760
WIRE -27472 3760 -27472 3728
WIRE -27360 3760 -27472 3760
WIRE -26992 3760 -26992 3696
WIRE -26992 3760 -27280 3760
WIRE -27520 3776 -27552 3776
WIRE -28544 3792 -28544 3744
WIRE -28544 3792 -28928 3792
WIRE -28384 3792 -28528 3792
WIRE -28256 3792 -28288 3792
WIRE -27856 3792 -27856 3744
WIRE -27856 3792 -28192 3792
WIRE -28528 3808 -28528 3792
WIRE -28528 3808 -28784 3808
WIRE -27520 3808 -27520 3776
WIRE -27360 3808 -27520 3808
WIRE -27216 3808 -27264 3808
WIRE -26992 3808 -26992 3760
WIRE -26992 3808 -27152 3808
WIRE -28448 3840 -28768 3840
WIRE -27584 3840 -28368 3840
WIRE -28448 3856 -28448 3840
WIRE -28368 3856 -28368 3840
WIRE -28368 3856 -28448 3856
WIRE -28256 3856 -28368 3856
WIRE -27856 3856 -27856 3792
WIRE -27856 3856 -28176 3856
WIRE -27584 3872 -27584 3840
WIRE -27376 3872 -27584 3872
WIRE -26992 3872 -26992 3808
WIRE -26992 3872 -27296 3872
WIRE -28928 3888 -28928 3872
WIRE -28384 3904 -28752 3904
WIRE -28240 3904 -28288 3904
WIRE -27856 3904 -27856 3856
WIRE -27856 3904 -28176 3904
WIRE -28784 3920 -28784 3808
WIRE -28784 3920 -29024 3920
WIRE -27376 3920 -27536 3920
WIRE -27232 3920 -27280 3920
WIRE -26992 3920 -26992 3872
WIRE -26992 3920 -27168 3920
WIRE -27616 3936 -28320 3936
WIRE -28768 3952 -28768 3840
WIRE -28768 3952 -28944 3952
WIRE -28320 3952 -28320 3936
WIRE -28320 3952 -28736 3952
WIRE -28240 3952 -28320 3952
WIRE -27856 3952 -27856 3904
WIRE -27856 3952 -28160 3952
WIRE -27616 3968 -27616 3936
WIRE -27376 3968 -27616 3968
WIRE -26992 3968 -26992 3920
WIRE -26992 3968 -27296 3968
WIRE -28368 4000 -28720 4000
WIRE -28208 4000 -28272 4000
WIRE -27856 4000 -27856 3952
WIRE -27856 4000 -28144 4000
WIRE -27376 4016 -27552 4016
WIRE -27232 4016 -27280 4016
WIRE -26992 4016 -26992 3968
WIRE -26992 4016 -27168 4016
WIRE -27536 4048 -28304 4048
WIRE -28752 4064 -28752 3904
WIRE -28752 4064 -29024 4064
WIRE -28304 4064 -28304 4048
WIRE -28304 4064 -28704 4064
WIRE -28208 4064 -28304 4064
WIRE -27856 4064 -27856 4000
WIRE -27856 4064 -28128 4064
WIRE -27536 4064 -27536 4048
WIRE -27376 4064 -27536 4064
WIRE -26992 4064 -26992 4016
WIRE -26992 4064 -27296 4064
WIRE -28736 4080 -28736 3952
WIRE -28736 4080 -28944 4080
WIRE -28944 4096 -28944 4080
WIRE -28352 4112 -28688 4112
WIRE -28192 4112 -28256 4112
WIRE -27856 4112 -27856 4064
WIRE -27856 4112 -28128 4112
WIRE -27728 4128 -28384 4128
WIRE -27376 4128 -27600 4128
WIRE -27232 4128 -27280 4128
WIRE -26992 4128 -26992 4064
WIRE -26992 4128 -27168 4128
WIRE -28384 4144 -28384 4128
WIRE -28384 4144 -28672 4144
WIRE -28192 4144 -28384 4144
WIRE -27856 4144 -27856 4112
WIRE -27856 4144 -28112 4144
WIRE -27728 4176 -27728 4128
WIRE -27376 4176 -27728 4176
WIRE -26992 4176 -26992 4128
WIRE -26992 4176 -27296 4176
WIRE -28720 4192 -28720 4000
WIRE -28720 4192 -29024 4192
WIRE -28176 4192 -28208 4192
WIRE -27856 4192 -27856 4144
WIRE -27856 4192 -28112 4192
WIRE -28336 4208 -28640 4208
WIRE -28208 4208 -28208 4192
WIRE -28208 4208 -28240 4208
WIRE -28704 4224 -28704 4064
WIRE -28704 4224 -28944 4224
WIRE -27376 4224 -27632 4224
WIRE -27232 4224 -27280 4224
WIRE -26992 4224 -26992 4176
WIRE -26992 4224 -27168 4224
WIRE -27712 4240 -28272 4240
WIRE -28272 4256 -28272 4240
WIRE -28272 4256 -28608 4256
WIRE -28176 4256 -28272 4256
WIRE -27856 4256 -27856 4192
WIRE -27856 4256 -28096 4256
WIRE -27712 4272 -27712 4240
WIRE -27376 4272 -27712 4272
WIRE -26992 4272 -26992 4224
WIRE -26992 4272 -27296 4272
WIRE -27552 4288 -27568 4288
WIRE -28688 4320 -28688 4112
WIRE -28688 4320 -29024 4320
WIRE -28304 4320 -28576 4320
WIRE -28160 4320 -28208 4320
WIRE -27856 4320 -27856 4256
WIRE -27856 4320 -28096 4320
WIRE -27552 4320 -27552 4288
WIRE -27376 4320 -27552 4320
WIRE -27232 4320 -27280 4320
WIRE -26992 4320 -26992 4272
WIRE -26992 4320 -27168 4320
WIRE -28672 4352 -28672 4144
WIRE -28672 4352 -28944 4352
WIRE -27616 4368 -28272 4368
WIRE -28272 4384 -28272 4368
WIRE -28272 4384 -28352 4384
WIRE -28160 4384 -28272 4384
WIRE -27856 4384 -27856 4320
WIRE -27856 4384 -28080 4384
WIRE -27616 4384 -27616 4368
WIRE -27376 4384 -27616 4384
WIRE -26992 4384 -26992 4320
WIRE -26992 4384 -27296 4384
WIRE -28640 4448 -28640 4208
WIRE -28640 4448 -29008 4448
WIRE -28608 4480 -28608 4256
WIRE -28608 4480 -28944 4480
WIRE -28576 4592 -28576 4320
WIRE -28576 4592 -28992 4592
WIRE -28352 4624 -28352 4384
WIRE -28352 4624 -28928 4624
FLAG -27648 1248 0
FLAG -28928 816 0
FLAG -28848 880 0
FLAG -28928 944 0
FLAG -28912 1024 0
FLAG -28960 1136 0
FLAG -28880 1184 0
FLAG -28976 1264 0
FLAG -28944 1312 0
FLAG -29008 1408 0
FLAG -28928 1456 0
FLAG -28928 736 1
IOPIN -28928 736 In
FLAG -28928 864 2
IOPIN -28928 864 In
FLAG -28960 1056 3
IOPIN -28960 1056 In
FLAG -28976 1184 4
IOPIN -28976 1184 In
FLAG -29008 1584 0
FLAG -28928 1648 0
FLAG -29008 1696 0
FLAG -28928 1760 0
FLAG -29008 1824 0
FLAG -28928 1872 0
FLAG -29008 1936 0
FLAG -28928 1984 0
FLAG -29008 2048 0
FLAG -28928 2096 0
FLAG -28928 2208 0
FLAG -29008 2272 0
FLAG -28928 2320 0
FLAG -29008 2384 0
FLAG -28928 2448 0
FLAG -29008 2496 0
FLAG -28928 2560 0
FLAG -29008 2608 0
FLAG -28928 2672 0
FLAG -29008 2720 0
FLAG -28928 2784 0
FLAG -29008 2992 0
FLAG -28928 3040 0
FLAG -29008 3136 0
FLAG -28928 3184 0
FLAG -29024 3280 0
FLAG -28928 3312 0
FLAG -29024 3408 0
FLAG -28928 3456 0
FLAG -29024 3552 0
FLAG -28928 3600 0
FLAG -29024 3712 0
FLAG -28928 3744 0
FLAG -29024 3840 0
FLAG -28928 3888 0
FLAG -29024 4000 0
FLAG -28944 4032 0
FLAG -29024 4144 0
FLAG -28944 4176 0
FLAG -28944 4304 0
FLAG -29024 4272 0
FLAG -29024 4400 0
FLAG -28944 4432 0
FLAG -29008 4528 0
FLAG -28944 4560 0
FLAG -28992 4672 0
FLAG -28928 4704 0
FLAG -29008 1504 6
IOPIN -29008 1504 In
FLAG -29008 1616 7
IOPIN -29008 1616 In
FLAG -29008 1744 8
IOPIN -29008 1744 In
FLAG -29008 1856 9
IOPIN -29008 1856 In
FLAG -29008 1968 10
IOPIN -29008 1968 In
FLAG -29008 2080 11
IOPIN -29008 2080 In
FLAG -29008 2304 13
IOPIN -29008 2304 In
FLAG -29008 2416 14
IOPIN -29008 2416 In
FLAG -29008 2528 15
IOPIN -29008 2528 In
FLAG -29008 2640 16
IOPIN -29008 2640 In
FLAG -29008 2768 17
IOPIN -29008 2768 In
FLAG -29008 2912 18
IOPIN -29008 2912 In
FLAG -29008 3056 19
IOPIN -29008 3056 In
FLAG -29024 3200 20
IOPIN -29024 3200 In
FLAG -29024 3328 21
IOPIN -29024 3328 In
FLAG -29024 3472 22
IOPIN -29024 3472 In
FLAG -29024 3632 23
IOPIN -29024 3632 In
FLAG -29024 3760 24
IOPIN -29024 3760 In
FLAG -29024 3920 25
IOPIN -29024 3920 In
FLAG -29024 4064 26
IOPIN -29024 4064 In
FLAG -29024 4192 27
IOPIN -29024 4192 In
FLAG -29024 4320 28
IOPIN -29024 4320 In
FLAG -29008 4448 29
IOPIN -29008 4448 In
FLAG -28992 4592 30
IOPIN -28992 4592 In
FLAG -29008 2160 0
FLAG -29024 2192 12
IOPIN -29024 2192 In
FLAG -29008 2848 0
FLAG -28928 2896 0
FLAG -29008 1328 5
IOPIN -29008 1328 In
FLAG -26560 288 bais_pos
IOPIN -26560 288 In
FLAG -26560 592 bias_neg
IOPIN -26560 592 In
FLAG -26464 448 0
FLAG -27616 1200 bias_pos
IOPIN -27616 1200 In
FLAG -26800 1136 bias_pos
IOPIN -26800 1136 In
FLAG -27616 1264 bias_neg
IOPIN -27616 1264 In
FLAG -26800 1200 bias_neg
IOPIN -26800 1200 In
FLAG -26832 1184 0
FLAG -27520 976 0
FLAG -27536 1104 0
FLAG -27504 1200 0
FLAG -27520 1344 0
FLAG -27536 1472 0
FLAG -27600 1584 0
FLAG -27568 1680 0
FLAG -27600 1776 0
FLAG -27568 1888 0
FLAG -27616 2016 0
FLAG -27568 2176 0
FLAG -27552 2288 0
FLAG -27552 2400 0
FLAG -27552 2512 0
FLAG -27552 2640 0
FLAG -27552 2752 0
FLAG -27552 2864 0
FLAG -27552 2976 0
FLAG -27552 3120 0
FLAG -27552 3248 0
FLAG -27552 3376 0
FLAG -27568 3520 0
FLAG -27616 3648 0
FLAG -27616 3760 0
FLAG -27552 3856 0
FLAG -27536 4000 0
FLAG -27552 4096 0
FLAG -27600 4208 0
FLAG -27632 4304 0
FLAG -27568 4368 0
SYMBOL memristormodel -28464 944 R0
SYMATTR InstName U1
SYMATTR Value MEM_YAKOPCIC
SYMBOL memristormodel -28464 1056 R0
SYMATTR InstName U2
SYMATTR Value MEM_YAKOPCIC
SYMBOL memristormodel -28464 1152 R0
SYMATTR InstName U3
SYMATTR Value MEM_YAKOPCIC
SYMBOL memristormodel -28464 1264 R0
SYMATTR InstName U4
SYMATTR Value MEM_YAKOPCIC
SYMBOL memristormodel -28464 1392 R0
SYMATTR InstName U5
SYMATTR Value MEM_YAKOPCIC
SYMBOL memristormodel -28480 1504 R0
SYMATTR InstName U6
SYMATTR Value MEM_YAKOPCIC
SYMBOL memristormodel -28464 1616 R0
SYMATTR InstName U7
SYMATTR Value MEM_YAKOPCIC
SYMBOL memristormodel -28448 1728 R0
SYMATTR InstName U8
SYMATTR Value MEM_YAKOPCIC
SYMBOL memristormodel -28432 1840 R0
SYMATTR InstName U9
SYMATTR Value MEM_YAKOPCIC
SYMBOL memristormodel -28416 1968 R0
SYMATTR InstName U10
SYMATTR Value MEM_YAKOPCIC
SYMBOL memristormodel -28400 2080 R0
SYMATTR InstName U11
SYMATTR Value MEM_YAKOPCIC
SYMBOL memristormodel -28384 2192 R0
SYMATTR InstName U12
SYMATTR Value MEM_YAKOPCIC
SYMBOL memristormodel -28368 2304 R0
SYMATTR InstName U13
SYMATTR Value MEM_YAKOPCIC
SYMBOL memristormodel -28368 2416 R0
SYMATTR InstName U14
SYMATTR Value MEM_YAKOPCIC
SYMBOL memristormodel -28352 2544 R0
SYMATTR InstName U15
SYMATTR Value MEM_YAKOPCIC
SYMBOL memristormodel -28352 2656 R0
SYMATTR InstName U16
SYMATTR Value MEM_YAKOPCIC
SYMBOL memristormodel -28352 2784 R0
SYMATTR InstName U17
SYMATTR Value MEM_YAKOPCIC
SYMBOL memristormodel -28352 2912 R0
SYMATTR InstName U18
SYMATTR Value MEM_YAKOPCIC
SYMBOL memristormodel -28336 3056 R0
SYMATTR InstName U19
SYMATTR Value MEM_YAKOPCIC
SYMBOL memristormodel -28320 3200 R0
SYMATTR InstName U20
SYMATTR Value MEM_YAKOPCIC
SYMBOL memristormodel -28304 3328 R0
SYMATTR InstName U21
SYMATTR Value MEM_YAKOPCIC
SYMBOL memristormodel -28304 3456 R0
SYMATTR InstName U22
SYMATTR Value MEM_YAKOPCIC
SYMBOL memristormodel -28304 3584 R0
SYMATTR InstName U23
SYMATTR Value MEM_YAKOPCIC
SYMBOL memristormodel -28304 3696 R0
SYMATTR InstName U24
SYMATTR Value MEM_YAKOPCIC
SYMBOL memristormodel -28304 3792 R0
SYMATTR InstName U25
SYMATTR Value MEM_YAKOPCIC
SYMBOL memristormodel -28304 3904 R0
SYMATTR InstName U26
SYMATTR Value MEM_YAKOPCIC
SYMBOL memristormodel -28288 4000 R0
SYMATTR InstName U27
SYMATTR Value MEM_YAKOPCIC
SYMBOL memristormodel -28272 4112 R0
SYMATTR InstName U28
SYMATTR Value MEM_YAKOPCIC
SYMBOL memristormodel -28256 4208 R0
SYMATTR InstName U29
SYMATTR Value MEM_YAKOPCIC
SYMBOL memristormodel -28224 4320 R0
SYMATTR InstName U30
SYMATTR Value MEM_YAKOPCIC
SYMBOL programmer_with_transmission -28336 976 R0
SYMATTR InstName X1
SYMBOL programmer_with_transmission -28336 1088 R0
SYMATTR InstName X2
SYMBOL programmer_with_transmission -28336 1184 R0
SYMATTR InstName X3
SYMBOL programmer_with_transmission -28336 1296 R0
SYMATTR InstName X4
SYMBOL programmer_with_transmission -28336 1440 R0
SYMATTR InstName X5
SYMBOL programmer_with_transmission -28352 1536 R0
SYMATTR InstName X6
SYMBOL programmer_with_transmission -28336 1648 R0
SYMATTR InstName X7
SYMBOL programmer_with_transmission -28336 1760 R0
SYMATTR InstName X8
SYMBOL programmer_with_transmission -28304 1888 R0
SYMATTR InstName X9
SYMBOL programmer_with_transmission -28272 2000 R0
SYMATTR InstName X10
SYMBOL programmer_with_transmission -28256 2128 R0
SYMATTR InstName X11
SYMBOL programmer_with_transmission -28240 2240 R0
SYMATTR InstName X12
SYMBOL programmer_with_transmission -28224 2352 R0
SYMATTR InstName X13
SYMBOL programmer_with_transmission -28224 2464 R0
SYMATTR InstName X14
SYMBOL programmer_with_transmission -28224 2576 R0
SYMATTR InstName X15
SYMBOL programmer_with_transmission -28208 2688 R0
SYMATTR InstName X16
SYMBOL programmer_with_transmission -28192 2816 R0
SYMATTR InstName X17
SYMBOL programmer_with_transmission -28192 2944 R0
SYMATTR InstName X18
SYMBOL programmer_with_transmission -28192 3088 R0
SYMATTR InstName X19
SYMBOL programmer_with_transmission -28192 3232 R0
SYMATTR InstName X20
SYMBOL programmer_with_transmission -28192 3360 R0
SYMATTR InstName X21
SYMBOL programmer_with_transmission -28192 3488 R0
SYMATTR InstName X22
SYMBOL programmer_with_transmission -28192 3616 R0
SYMATTR InstName X23
SYMBOL programmer_with_transmission -28192 3728 R0
SYMATTR InstName X24
SYMBOL programmer_with_transmission -28192 3824 R0
SYMATTR InstName X25
SYMBOL programmer_with_transmission -28176 3936 R0
SYMATTR InstName X26
SYMBOL programmer_with_transmission -28144 4032 R0
SYMATTR InstName X27
SYMBOL programmer_with_transmission -28128 4144 R0
SYMATTR InstName X28
SYMBOL programmer_with_transmission -28096 4352 R0
SYMATTR InstName X30
SYMBOL res -28320 992 R90
WINDOW 0 0 56 VBottom 2
WINDOW 3 32 56 VTop 2
SYMATTR InstName R1
SYMATTR Value 18.182k
SYMBOL res -28320 1088 R90
WINDOW 0 0 56 VBottom 2
WINDOW 3 32 56 VTop 2
SYMATTR InstName R2
SYMATTR Value 18.182k
SYMBOL res -28320 1200 R90
WINDOW 0 0 56 VBottom 2
WINDOW 3 32 56 VTop 2
SYMATTR InstName R3
SYMATTR Value 18.182k
SYMBOL res -28336 1312 R90
WINDOW 0 0 56 VBottom 2
WINDOW 3 32 56 VTop 2
SYMATTR InstName R4
SYMATTR Value 18.182k
SYMBOL res -28336 1440 R90
WINDOW 0 0 56 VBottom 2
WINDOW 3 32 56 VTop 2
SYMATTR InstName R5
SYMATTR Value 18.182k
SYMBOL res -28320 1552 R90
WINDOW 0 0 56 VBottom 2
WINDOW 3 32 56 VTop 2
SYMATTR InstName R6
SYMATTR Value 18.182k
SYMBOL res -28320 1664 R90
WINDOW 0 0 56 VBottom 2
WINDOW 3 32 56 VTop 2
SYMATTR InstName R7
SYMATTR Value 18.182k
SYMBOL res -28304 1776 R90
WINDOW 0 0 56 VBottom 2
WINDOW 3 32 56 VTop 2
SYMATTR InstName R8
SYMATTR Value 18.182k
SYMBOL res -28256 1888 R90
WINDOW 0 0 56 VBottom 2
WINDOW 3 32 56 VTop 2
SYMATTR InstName R9
SYMATTR Value 18.182k
SYMBOL res -28240 2000 R90
WINDOW 0 0 56 VBottom 2
WINDOW 3 32 56 VTop 2
SYMATTR InstName R10
SYMATTR Value 18.182k
SYMBOL res -28224 2128 R90
WINDOW 0 0 56 VBottom 2
WINDOW 3 32 56 VTop 2
SYMATTR InstName R11
SYMATTR Value 18.182k
SYMBOL res -28208 2240 R90
WINDOW 0 0 56 VBottom 2
WINDOW 3 32 56 VTop 2
SYMATTR InstName R12
SYMATTR Value 18.182k
SYMBOL res -28208 2368 R90
WINDOW 0 0 56 VBottom 2
WINDOW 3 32 56 VTop 2
SYMATTR InstName R13
SYMATTR Value 18.182k
SYMBOL res -28208 2464 R90
WINDOW 0 0 56 VBottom 2
WINDOW 3 32 56 VTop 2
SYMATTR InstName R14
SYMATTR Value 18.182k
SYMBOL res -28192 2576 R90
WINDOW 0 0 56 VBottom 2
WINDOW 3 32 56 VTop 2
SYMATTR InstName R15
SYMATTR Value 18.182k
SYMBOL res -28176 2688 R90
WINDOW 0 0 56 VBottom 2
WINDOW 3 32 56 VTop 2
SYMATTR InstName R16
SYMATTR Value 18.182k
SYMBOL res -28176 2816 R90
WINDOW 0 0 56 VBottom 2