Version 4
SHEET 1 880 680
WIRE -48 32 -128 32
WIRE 112 32 80 32
WIRE 256 32 192 32
WIRE 320 48 240 48
WIRE -128 64 -128 32
WIRE 240 96 240 48
WIRE 240 96 176 96
WIRE -48 112 -48 32
WIRE -16 112 -48 112
WIRE 80 112 80 32
WIRE 80 112 64 112
WIRE 144 112 80 112
WIRE 256 128 256 32
WIRE 256 128 208 128
WIRE 144 144 96 144
WIRE 320 144 320 128
WIRE -128 160 -128 144
WIRE -16 160 -48 160
WIRE 80 160 80 112
WIRE 80 160 64 160
WIRE 96 176 96 144
WIRE 176 192 176 160
WIRE 320 192 176 192
WIRE -48 208 -48 160
WIRE -48 208 -128 208
WIRE 96 288 96 256
WIRE 320 288 320 272
WIRE -128 304 -128 288
FLAG 96 288 0
FLAG 320 144 0
FLAG 320 288 0
FLAG -128 160 0
FLAG -128 304 0
SYMBOL Opamps\\OP27 176 64 R0
SYMATTR InstName U1
SYMBOL res 80 96 R90
WINDOW 0 0 56 VBottom 2
WINDOW 3 32 56 VTop 2
SYMATTR InstName R1
SYMATTR Value 15
SYMBOL res 80 144 R90
WINDOW 0 0 56 VBottom 2
WINDOW 3 32 56 VTop 2
SYMATTR InstName R2
SYMATTR Value 14.5
SYMBOL res 208 16 R90
WINDOW 0 0 56 VBottom 2
WINDOW 3 32 56 VTop 2
SYMATTR InstName R3
SYMATTR Value 1000
SYMBOL voltage 96 160 R0
WINDOW 123 0 0 Left 2
WINDOW 39 0 0 Left 2
SYMATTR InstName V1
SYMATTR Value 2.5
SYMBOL voltage 320 32 R0
WINDOW 123 0 0 Left 2
WINDOW 39 0 0 Left 2
SYMATTR InstName V2
SYMATTR Value 5
SYMBOL voltage 320 176 R0
WINDOW 123 0 0 Left 2
WINDOW 39 0 0 Left 2
SYMATTR InstName V3
SYMATTR Value -5
SYMBOL voltage -128 48 R0
WINDOW 123 0 0 Left 2
WINDOW 39 0 0 Left 2
SYMATTR InstName V4
SYMATTR Value PULSE(0 .150 .001 .001 .001 .5 1 3)
SYMBOL voltage -128 192 R0
WINDOW 123 0 0 Left 2
WINDOW 39 0 0 Left 2
SYMATTR InstName V5
SYMATTR Value PULSE(0 .150 .001 .001 .001 .25 .5 6)
TEXT -162 328 Left 2 !.tran 0 3 0 .5
