Version 4
SHEET 1 880 680
WIRE 288 -80 -128 -80
WIRE 288 16 288 -80
WIRE 288 16 192 16
WIRE -256 32 -304 32
WIRE -160 32 -176 32
WIRE 80 48 48 48
WIRE 224 48 160 48
WIRE -400 96 -416 96
WIRE -128 96 -128 -80
WIRE -128 96 -256 96
WIRE 48 96 48 48
WIRE 48 96 16 96
WIRE 64 96 48 96
WIRE 192 96 192 16
WIRE 192 96 160 96
WIRE -256 112 -256 96
WIRE 64 112 64 96
WIRE 128 112 64 112
WIRE -320 128 -320 96
WIRE -304 128 -304 32
WIRE -304 128 -320 128
WIRE -288 128 -304 128
WIRE 224 128 224 48
WIRE 224 128 192 128
WIRE 368 128 224 128
WIRE -160 144 -160 32
WIRE -160 144 -224 144
WIRE -64 144 -64 96
WIRE -64 144 -160 144
WIRE 160 176 160 160
WIRE 224 176 160 176
WIRE 304 176 224 176
WIRE -416 192 -416 96
WIRE -256 256 -256 176
WIRE 224 256 224 176
WIRE 224 256 -256 256
FLAG 288 96 0
FLAG 304 256 0
FLAG -416 272 0
FLAG 128 144 0
SYMBOL Opamps\\OP07 160 64 R0
SYMATTR InstName U1
SYMBOL voltage 288 0 R0
WINDOW 123 0 0 Left 2
WINDOW 39 0 0 Left 2
SYMATTR InstName V1
SYMATTR Value 5
SYMBOL voltage 304 160 R0
WINDOW 123 0 0 Left 2
WINDOW 39 0 0 Left 2
SYMATTR InstName V2
SYMATTR Value -5
SYMBOL voltage -416 176 R0
WINDOW 123 0 0 Left 2
WINDOW 39 0 0 Left 2
SYMATTR InstName V3
SYMATTR Value PULSE(-4 4 .001 .001 .001 .5 1)
SYMBOL res 176 32 R90
WINDOW 0 0 56 VBottom 2
WINDOW 3 32 56 VTop 2
SYMATTR InstName R2
SYMATTR Value 25
SYMBOL res 32 80 R90
WINDOW 0 0 56 VBottom 2
WINDOW 3 32 56 VTop 2
SYMATTR InstName R1
SYMATTR Value 1k
SYMBOL Opamps\\OP07 -256 80 R0
SYMATTR InstName U2
SYMBOL res -304 80 R90
WINDOW 0 0 56 VBottom 2
WINDOW 3 32 56 VTop 2
SYMATTR InstName R3
SYMATTR Value 1k
SYMBOL res -160 16 R90
WINDOW 0 0 56 VBottom 2
WINDOW 3 32 56 VTop 2
SYMATTR InstName R4
SYMATTR Value 1k
TEXT -152 184 Left 2 !.tran 5
