Version 4
SHEET 1 1252 732
WIRE 320 -48 272 -48
WIRE 464 -48 400 -48
WIRE 720 -48 656 -48
WIRE -48 32 -176 32
WIRE 656 48 656 -48
WIRE -176 64 -176 32
WIRE 272 64 272 -48
WIRE 272 64 160 64
WIRE 352 64 272 64
WIRE -48 80 -48 32
WIRE 0 80 -48 80
WIRE 160 80 160 64
WIRE 160 80 80 80
WIRE 464 80 464 -48
WIRE 464 80 416 80
WIRE 752 80 688 80
WIRE 848 80 832 80
WIRE 880 80 848 80
WIRE 1056 80 960 80
WIRE 624 96 576 96
WIRE 464 112 464 80
WIRE 576 112 576 96
WIRE 576 112 464 112
WIRE 656 128 656 112
WIRE 736 128 656 128
WIRE 848 128 848 80
WIRE -48 144 -48 80
WIRE 0 144 -48 144
WIRE 208 144 80 144
WIRE -176 160 -176 144
WIRE 1248 208 1168 208
WIRE -48 272 -176 272
WIRE 0 272 -48 272
WIRE 160 272 160 80
WIRE 160 272 80 272
WIRE 176 272 160 272
WIRE 880 320 240 320
WIRE 1056 320 1056 80
WIRE 1056 320 960 320
WIRE 1088 320 1088 208
WIRE 1088 320 1056 320
WIRE 1120 320 1088 320
WIRE -48 336 -48 272
WIRE 0 336 -48 336
WIRE 128 336 80 336
WIRE 1248 336 1248 208
WIRE 1248 336 1184 336
WIRE 752 352 672 352
WIRE -176 368 -176 352
WIRE 240 384 240 320
WIRE 240 384 -96 384
WIRE 320 384 272 384
WIRE 464 384 400 384
WIRE -96 448 -96 384
WIRE -96 448 -176 448
WIRE -48 448 -96 448
WIRE 0 448 -48 448
WIRE 128 448 128 336
WIRE 128 448 80 448
WIRE 208 448 208 144
WIRE 208 448 128 448
WIRE 272 448 272 384
WIRE 272 448 208 448
WIRE 352 448 272 448
WIRE 672 448 672 352
WIRE 464 464 464 384
WIRE 464 464 416 464
WIRE 768 480 704 480
WIRE 880 480 848 480
WIRE 912 480 880 480
WIRE 1056 480 1056 320
WIRE 1056 480 992 480
WIRE 464 496 464 464
WIRE 640 496 464 496
WIRE 752 496 704 496
WIRE -48 512 -48 448
WIRE 0 512 -48 512
WIRE 176 512 176 272
WIRE 176 512 80 512
WIRE 880 512 880 480
WIRE -176 544 -176 528
WIRE 672 544 672 512
WIRE 704 544 704 496
WIRE 704 544 672 544
FLAG -176 160 0
FLAG -176 368 0
FLAG -176 544 0
FLAG 352 96 Vcom
FLAG 352 480 Vcom
FLAG 848 208 Vcom
FLAG 880 592 Vcom
FLAG -336 -80 Vcom
FLAG -336 0 0
FLAG 1120 352 Vcom
FLAG 720 32 0
FLAG 736 208 0
FLAG 752 432 0
FLAG 752 576 0
FLAG 624 64 Vcom
FLAG 640 464 Vcom
SYMBOL res 96 128 R90
WINDOW 0 0 56 VBottom 2
WINDOW 3 32 56 VTop 2
SYMATTR InstName R1
SYMATTR Value 31.952k
SYMBOL res 96 64 R90
WINDOW 0 0 56 VBottom 2
WINDOW 3 32 56 VTop 2
SYMATTR InstName R2
SYMATTR Value 29.514k
SYMBOL res 96 320 R90
WINDOW 0 0 56 VBottom 2
WINDOW 3 32 56 VTop 2
SYMATTR InstName R3
SYMATTR Value 32.332k
SYMBOL res 96 256 R90
WINDOW 0 0 56 VBottom 2
WINDOW 3 32 56 VTop 2
SYMATTR InstName R4
SYMATTR Value 30.135k
SYMBOL res 96 496 R90
WINDOW 0 0 56 VBottom 2
WINDOW 3 32 56 VTop 2
SYMATTR InstName R5
SYMATTR Value 34.866k
SYMBOL res 96 432 R90
WINDOW 0 0 56 VBottom 2
WINDOW 3 32 56 VTop 2
SYMATTR InstName R6
SYMATTR Value 30.844k
SYMBOL Opamps\\opamp 384 16 R0
SYMATTR InstName U1
SYMBOL Opamps\\opamp 384 400 R0
SYMATTR InstName U3
SYMBOL voltage -176 48 R0
WINDOW 123 0 0 Left 2
WINDOW 39 0 0 Left 2
SYMATTR InstName V1
SYMATTR Value PULSE(-100m 100m .001m .001m .001m .5m 1m)
SYMBOL voltage -176 256 R0
WINDOW 123 0 0 Left 2
WINDOW 39 0 0 Left 2
SYMATTR InstName V2
SYMATTR Value PULSE(-100m 100m .001m .001m .001m 1m 2m)
SYMBOL voltage -176 432 R0
WINDOW 123 0 0 Left 2
WINDOW 39 0 0 Left 2
SYMATTR InstName V3
SYMATTR Value 100m
SYMBOL res 416 -64 R90
WINDOW 0 0 56 VBottom 2
WINDOW 3 32 56 VTop 2
SYMATTR InstName R7
SYMATTR Value 5.02k
SYMBOL res 416 368 R90
WINDOW 0 0 56 VBottom 2
WINDOW 3 32 56 VTop 2
SYMATTR InstName R9
SYMATTR Value 5.02k
SYMBOL Opamps\\OP37 656 16 R0
SYMATTR InstName U4
SYMBOL Opamps\\OP37 672 416 R0
SYMATTR InstName U6
SYMBOL res 848 64 R90
WINDOW 0 0 56 VBottom 2
WINDOW 3 32 56 VTop 2
SYMATTR InstName R8
SYMATTR Value 34.184k
SYMBOL res 864 464 R90
WINDOW 0 0 56 VBottom 2
WINDOW 3 32 56 VTop 2
SYMATTR InstName R10
SYMATTR Value 34.184k
SYMBOL res 864 224 R180
WINDOW 0 36 76 Left 2
WINDOW 3 36 40 Left 2
SYMATTR InstName R11
SYMATTR Value 32.454k
SYMBOL res 896 608 R180
WINDOW 0 36 76 Left 2
WINDOW 3 36 40 Left 2
SYMATTR InstName R12
SYMATTR Value 32.454k
SYMBOL res 976 64 R90
WINDOW 0 0 56 VBottom 2
WINDOW 3 32 56 VTop 2
SYMATTR InstName R13
SYMATTR Value 34.184k
SYMBOL res 976 304 R90
WINDOW 0 0 56 VBottom 2
WINDOW 3 32 56 VTop 2
SYMATTR InstName R14
SYMATTR Value 32.454k
SYMBOL res 1008 464 R90
WINDOW 0 0 56 VBottom 2
WINDOW 3 32 56 VTop 2
SYMATTR InstName R15
SYMATTR Value 32.776k
SYMBOL Opamps\\opamp 1152 272 R0
SYMATTR InstName U2
SYMBOL voltage -336 -96 R0
WINDOW 123 0 0 Left 2
WINDOW 39 0 0 Left 2
SYMATTR InstName V4
SYMATTR Value 0
SYMBOL res 1184 192 R90
WINDOW 0 0 56 VBottom 2
WINDOW 3 32 56 VTop 2
SYMATTR InstName R16
SYMATTR Value 5.02k
SYMBOL voltage 720 -64 R0
WINDOW 123 0 0 Left 2
WINDOW 39 0 0 Left 2
SYMATTR InstName V5
SYMATTR Value 5
SYMBOL voltage 752 336 R0
WINDOW 123 0 0 Left 2
WINDOW 39 0 0 Left 2
SYMATTR InstName V6
SYMATTR Value 5
SYMBOL voltage 736 112 R0
WINDOW 123 0 0 Left 2
WINDOW 39 0 0 Left 2
SYMATTR InstName V7
SYMATTR Value -5
SYMBOL voltage 752 480 R0
WINDOW 123 0 0 Left 2
WINDOW 39 0 0 Left 2
SYMATTR InstName V8
SYMATTR Value -5
TEXT -368 712 Left 2 !.tran 10m
TEXT 864 -16 Left 2 !.include opamp.sub
